src/tests/data/grids/RAW/202101181105_mod_def.raw
0,   100.00, 33, 1, 1, 50.00     / PSS(R)E-33.11   TUE, MAY 30 2023  10:27
18/01/21 REE-CECOEL   RATIOS DE INVIERNO
REAL TIME DATA RETRIEVED ON  18/ 1/2021 11: 0
  1060,'GUARDO _JBP1', 132.0000,1,   1,  10,   1,1.02291,   8.9600,1.08000,0.92000,1.11000,0.91100
  1220,'GUARDO _JBP1',  45.0000,2,   1,  10,   1,0.99980,  11.4784,1.10000,0.90000,1.14000,0.89900
  1221,'GUARDO _PB-C',  45.0000,2,   1,  10,   1,0.99990,  11.4766,1.09000,0.91000,1.13000,0.90000
  1528,'APAYCACH_JBP', 132.0000,1,   1,  10,   1,1.02621,   8.2716,1.08000,0.92000,1.11000,0.91100
  1535,'MINICENT_PB-', 132.0000,3,   1,  10,   1,1.02540,   8.2947,1.08000,0.92000,1.11000,0.91100
  1796,'REMOLIN_PB-G',  11.0000,4,   1,  10,   1,1.00000,   0.0000,1.10000,0.90000,1.10000,0.90000
  1797,'REMOLIN_PB-G',  11.0000,2,   1,  10,   1,0.98400,  13.3707,1.08000,0.90000,1.12000,0.89900
 21033,'CILLAMA_JBP1', 220.0000,1,   1,  10,   1,1.05924,  12.7003,1.09000,0.95000,1.13000,0.94400
 21065,'MATAPOR_JBP1', 220.0000,2,   1,   4,   1,1.05757,  12.8450,1.09000,0.95000,1.13000,0.94400
 21135,'REMOLIN_JBP1', 220.0000,1,   1,  10,   1,1.06789,  11.9711,1.09000,0.95000,1.13000,0.94400
 21225,'GUARDO _JBP2', 220.0000,2,   1,  10,   1,1.06744,  11.8667,1.09000,0.95000,1.13000,0.94400
 22080,'HERRERA_JBP1', 220.0000,1,   2,  10,   1,1.06772,  11.4235,1.09000,0.95000,1.13000,0.94400
 22370,'VILLALB_JBP2', 220.0000,2,   2,  10,   1,1.06475,  10.9674,1.09000,0.95000,1.13000,0.94400
0 / END OF BUS DATA, BEGIN LOAD DATA
  1060,'99',1,   1,  10,    12.000,    26.523,     0.000,     0.000,     0.000,     0.000,   1,1,0
  1220,'1 ',0,   1,  10,     0.000,     0.000,     0.000,     0.000,     0.000,     0.000,   1,1,0
  1528,'1 ',1,   1,  10,     0.000,     0.000,     0.000,     0.000,     0.000,     0.000,   1,1,0
  1528,'99',1,   1,  10,     0.001,    -1.028,     0.000,     0.000,     0.000,     0.000,   1,1,0
 21065,'1 ',1,   1,   4,    11.460,     2.260,     0.000,     0.000,     0.000,     0.000,   1,0,0
 21225,'1 ',1,   1,  10,     6.920,    -0.390,     0.000,     0.000,     0.000,     0.000,   1,0,0
 22080,'1 ',1,   2,  10,     1.760,     0.820,     0.000,     0.000,     0.000,     0.000,   1,0,0
 22370,'1 ',1,   2,  10,    18.400,     0.240,     0.000,     0.000,     0.000,     0.000,   1,1,0
 22370,'2 ',1,   2,  10,    20.900,     3.340,     0.000,     0.000,     0.000,     0.000,   1,1,0
 22370,'3 ',1,   2,  10,    14.200,    -3.390,     0.000,     0.000,     0.000,     0.000,   1,0,0
0 / END OF LOAD DATA, BEGIN FIXED SHUNT DATA
0 / END OF FIXED SHUNT DATA, BEGIN GENERATOR DATA
  1220,'99',    12.000,    -4.002,    -4.002,    -4.002,0.99990,     0,   100.000, 0.00000E+0, 1.00000E+0, 0.00000E+0, 0.00000E+0,1.00000,1,  100.0,    37.975,    37.975,   1,1.0000
  1221,'14',     0.000,     0.000,     8.000,    -8.000,0.99990,     0,    12.800, 0.00000E+0, 2.00000E-1, 0.00000E+0, 0.00000E+0,1.00000,0,  100.0,    11.000,     0.000,   1,1.0000
  1221,'24',     0.800,     4.711,     8.000,    -8.000,0.99990,     0,    12.800, 0.00000E+0, 2.00000E-1, 0.00000E+0, 0.00000E+0,1.00000,1,  100.0,    12.000,     0.000,   1,1.0000
  1535,'14',   -45.211,    34.494,    15.000,   -15.000,1.02540,     0,    33.000, 0.00000E+0, 2.58500E-1, 0.00000E+0, 0.00000E+0,1.00000,1,  100.0,    30.000,     0.000,   1,1.0000
  1796,'14',     0.000,     0.000,    25.000,   -50.000,1.00000,     0,    48.900, 0.00000E+0, 2.00000E-1, 0.00000E+0, 0.00000E+0,1.00000,0,  100.0,    37.000,    18.000,   1,1.0000
  1797,'14',     9.590,    -1.105,    25.000,   -50.000,0.98400,     0,    48.900, 0.00000E+0, 2.00000E-1, 0.00000E+0, 0.00000E+0,1.00000,1,  100.0,    37.000,    18.000,   1,1.0000
 21065,'99',    43.187,   -27.414,   -27.414,   -27.414,1.06402,     0,   100.000, 0.00000E+0, 1.00000E+0, 0.00000E+0, 0.00000E+0,1.00000,1,  100.0,    43.187,    43.187,   1,1.0000
 21225,'99',    50.000,    -7.778,    -7.778,    -7.778,1.07377,     0,   100.000, 0.00000E+0, 1.00000E+0, 0.00000E+0, 0.00000E+0,1.00000,1,  100.0,    98.552,    98.552,   1,1.0000
 22370,'99',    16.062,   -12.763,   -12.763,   -12.763,1.07118,     0,   100.000, 0.00000E+0, 1.00000E+0, 0.00000E+0, 0.00000E+0,1.00000,1,  100.0,    16.062,    16.062,   1,1.0000
0 / END OF GENERATOR DATA, BEGIN BRANCH DATA
  1060,  1535,'1 ', 9.70000E-3, 1.90300E-2,   0.00388,  123.00,  123.00,   88.00,  0.00000,  0.00000,  0.00000,  0.00000,1,1,   0.00,   1,1.0000
  1220,  1221,'1 ', 1.00000E-3, 2.00000E-3,   0.00000,  100.00,  100.00,  100.00,  0.00000,  0.00000,  0.00000,  0.00000,1,1,   0.00,   1,1.0000
  1528,  1535,'1 ', 2.66600E-2, 5.23300E-2,   0.01067,  123.00,  123.00,   88.00,  0.00000,  0.00000,  0.00000,  0.00000,1,1,   0.00,   1,1.0000
 21033, 21065,'1 ', 1.42000E-3, 7.62000E-3,   0.01110,  300.00,  250.00,  200.00,  0.00000,  0.00000,  0.00000,  0.00000,1,2,   0.00,   1,1.0000
 21033, 21225,'1 ', 8.44000E-3, 4.52700E-2,   0.06608,  450.00,  410.00,  380.00,  0.00000,  0.00000,  0.00000,  0.00000,1,1,   0.00,   1,1.0000
 21135, 21225,'1 ', 3.80000E-3, 2.19000E-2,   0.03240,  190.00,  180.00,  170.00,  0.00000,  0.00000,  0.00000,  0.00000,1,2,   0.00,   1,1.0000
 21225, 22080,'1 ', 1.00000E-2, 4.09700E-2,   0.06590,  310.00,  260.00,  200.00,  0.00000,  0.00000,  0.00000,  0.00000,1,1,   0.00,   1,1.0000
 21225, 22370,'1 ', 2.23100E-2, 9.13800E-2,   0.14692,  310.00,  260.00,  200.00,  0.00000,  0.00000,  0.00000,  0.00000,1,1,   0.00,   1,1.0000
 22080, 22370,'1 ', 1.23300E-2, 5.05200E-2,   0.08118,  310.00,  260.00,  210.00,  0.00000,  0.00000,  0.00000,  0.00000,1,1,   0.00,   1,1.0000
0 / END OF BRANCH DATA, BEGIN TRANSFORMER DATA
  1220, 21225,     0,'3 ',1,1,1, 0.00000E+0, 0.00000E+0,2,'TRP2        ',1,   1,1.0000,   0,1.0000,   0,1.0000,   0,1.0000,'YNyn0       '
 1.21710E-2, 3.59357E-1,   100.00
0.93120,   0.000,   0.000,    45.00,    45.00,    45.00, 0,      0, 1.04760, 0.86140, 1.10000, 0.90000,   9, 0, 0.00000, 0.00000,  0.000
1.00000,   0.000
  1220,  1060, 21225,'2 ',1,1,1, 0.00000E+0, 0.00000E+0,2,'TRP1        ',1,   1,1.0000,   0,1.0000,   0,1.0000,   0,1.0000,'            '
 1.60000E-2, 3.47200E-1,   100.00, 4.20000E-3, 1.20200E-1,   100.00, 1.52000E-2, 5.14000E-1,   100.00,0.98231,   8.1756
1.02220,  45.000,   0.000,    25.00,    25.00,    25.00, 0,      0, 1.15000, 0.94560, 1.10000, 0.90000,   9, 0, 0.00000, 0.00000,  0.000
1.04550, 132.000,   0.000,    50.00,    50.00,    50.00, 0,      0, 1.04550, 1.04550, 1.10000, 0.90000, 159, 0, 0.00000, 0.00000,  0.000
1.09770, 220.000,   0.000,    50.00,    50.00,    50.00, 0,      0, 1.12390, 1.01930, 1.10000, 0.90000, 159, 0, 0.00000, 0.00000,  0.000
 21135,  1796,     0,'1 ',1,1,1, 0.00000E+0, 0.00000E+0,2,'TM1         ',0,   1,1.0000,   0,1.0000,   0,1.0000,   0,1.0000,'YNyn0       '
 2.13800E-2, 2.44380E-1,   100.00
1.08420,   0.000,   0.000,    60.00,    60.00,    60.00, 0,      0, 1.13230, 1.00410, 1.10000, 0.90000,   9, 0, 0.00000, 0.00000,  0.000
1.00000,   0.000
 21135,  1797,     0,'2 ',1,1,1, 0.00000E+0, 0.00000E+0,2,'TM2         ',1,   1,1.0000,   0,1.0000,   0,1.0000,   0,1.0000,'YNyn0       '
 2.13800E-2, 2.44380E-1,   100.00
1.08420,   0.000,   0.000,    60.00,    60.00,    60.00, 0,      0, 1.13230, 1.00410, 1.10000, 0.90000,   9, 0, 0.00000, 0.00000,  0.000
1.00000,   0.000
0 / END OF TRANSFORMER DATA, BEGIN AREA DATA
   1,     0,     0.000,    10.000,'NOROESTE    '
   2,     0,     0.000,    10.000,'NORTE       '
0 / END OF AREA DATA, BEGIN TWO-TERMINAL DC DATA
0 / END OF TWO-TERMINAL DC DATA, BEGIN VSC DC LINE DATA
0 / END OF VSC DC LINE DATA, BEGIN IMPEDANCE CORRECTION DATA
0 / END OF IMPEDANCE CORRECTION DATA, BEGIN MULTI-TERMINAL DC DATA
0 / END OF MULTI-TERMINAL DC DATA, BEGIN MULTI-SECTION LINE DATA
0 / END OF MULTI-SECTION LINE DATA, BEGIN ZONE DATA
   4,'CANTAB      '
  10,'C.LEON      '
0 / END OF ZONE DATA, BEGIN INTER-AREA TRANSFER DATA
0 / END OF INTER-AREA TRANSFER DATA, BEGIN OWNER DATA
0 / END OF OWNER DATA, BEGIN FACTS DEVICE DATA
0 / END OF FACTS DEVICE DATA, BEGIN SWITCHED SHUNT DATA
0 / END OF SWITCHED SHUNT DATA, BEGIN GNE DATA
0 / END OF GNE DATA, BEGIN INDUCTION MACHINE DATA
0 / END OF INDUCTION MACHINE DATA
Q
